Version 4.1
SHEET 1 1368 680
WIRE 288 -32 288 -48
WIRE -416 16 -416 0
WIRE -416 16 -544 16
WIRE -544 64 -544 16
WIRE 288 64 288 32
WIRE -208 96 -224 96
WIRE -64 96 -208 96
WIRE 224 112 176 112
WIRE -64 128 -160 128
WIRE 176 144 176 112
WIRE 176 144 64 144
WIRE -224 176 -272 176
WIRE -160 256 -160 128
WIRE -48 256 -160 256
WIRE 288 256 288 160
WIRE 288 256 32 256
WIRE -160 288 -160 256
WIRE -272 368 -272 176
WIRE -160 368 -272 368
WIRE 288 368 288 336
WIRE 288 368 -160 368
WIRE -160 384 -160 368
WIRE 288 384 288 368
FLAG -416 -80 +vcc
FLAG -544 64 0
FLAG -160 384 0
FLAG 288 384 0
FLAG 288 256 out
FLAG 288 -48 +vcc
FLAG 64 80 +vcc
FLAG 64 112 -vee
FLAG -208 96 in
FLAG -224 176 0
FLAG -416 96 -vee
SYMBOL res 272 240 R0
SYMATTR InstName R3
SYMATTR Value 100
SYMATTR SpiceLine tol=1 pwr=0.1
SYMBOL npn 224 64 R0
SYMATTR InstName DI_BC817-40
SYMBOL Misc\\battery -416 -96 R0
WINDOW 123 0 0 Left 0
WINDOW 39 0 0 Left 0
WINDOW 3 36 60 Left 2
SYMATTR Value 5
SYMATTR InstName V3
SYMBOL res 48 240 R90
WINDOW 0 0 56 VBottom 2
WINDOW 3 32 56 VTop 2
SYMATTR InstName R2
SYMATTR Value 1K
SYMBOL res -176 272 R0
SYMATTR InstName R1
SYMATTR Value 2K
SYMBOL diode 272 -32 R0
SYMATTR InstName D1
SYMBOL LASER\ DRIVER\ DIODE\\OPAx197 0 112 R0
SYMATTR InstName U1
SYMBOL voltage -224 80 R0
SYMATTR InstName V1
SYMATTR Value 5
SYMBOL Misc\\battery -416 0 R0
WINDOW 0 45 57 Left 2
SYMATTR InstName V2
SYMATTR Value 5
TEXT 448 80 Left 2 !.MODEL DI_BC817-40  NPN (IS=4.04n NF=1.00 BF=822 VAF=121\n+ IKF=0.273 ISE=2.86n NE=2.00 BR=4.00 NR=1.00\n+ VAR=20.0 IKR=0.675 RE=0.227 RB=0.907 RC=90.7m\n+ XTB=1.5 CJE=107p VJE=1.10 MJE=0.500 CJC=34.7p VJC=0.300 MJC=0.300 \n+ TF=651p TR=108n EG=1.12 )
TEXT -200 544 Left 2 !.dc V1 0 5 0.1
